[TITLE]
Scenario: CABILDO 
Date: 09/11/2017 08:43:22 

[JUNCTIONS]
;ID              	Elev        	Demand      	Pattern         
 3933            	184.75      	0           	                	;
 3934            	174.5       	0           	                	;
 3935            	176         	0           	                	;
 3936            	181.2       	0           	                	;
 3937            	181.35      	0           	                	;
 3938            	197.5       	0           	                	;
 3939            	193.5       	0           	                	;
 3940            	195.7       	0           	                	;
 3941            	198.65      	0           	                	;
 3942            	195.25      	0.0620418758638171	6443            	;
 3943            	181.3       	0           	                	;
 3944            	177.7       	0           	                	;
 3945            	195.7       	0.00736328643314353	6440            	;
 3946            	183.4       	0           	                	;
 3947            	180         	0.323889246860072	6440            	;
 3948            	179.4       	0           	                	;
 3949            	174.5       	0           	                	;
 3950            	172.9       	0           	                	;
 3951            	167.8       	0           	                	;
 3953            	169.5       	0.174272391934251	6440            	;
 3954            	182.65      	0           	                	;
 3955            	183.5       	0           	                	;
 3956            	176.6       	0           	                	;
 3957            	179.1       	0           	                	;
 3958            	217         	0           	                	;
 3959            	191.3       	0           	                	;
 3960            	167.3       	0           	                	;
 3961            	212.2       	0           	                	;
 3962            	192.3       	0.186781933191368	6440            	;
 3963            	181.1       	0.0390364436560827	6440            	;
 3964            	187.95      	0           	                	;
 3965            	181         	0.0455921822853485	6440            	;
 3966            	181.9       	0.275936998668187	6440            	;
 3967            	181.55      	0           	                	;
 3968            	161.45      	0.920223071627649	6440            	;
 3969            	183.85      	0           	                	;
 3970            	173.6       	0           	                	;
 3971            	181         	0           	                	;
 3973            	170.45      	0           	                	;
 3974            	166.15      	0.541840737352403	6440            	;
 3975            	184         	0           	                	;
 3977            	188.15      	0           	                	;
 3978            	186.9       	0.0849531740286835	6443            	;
 3979            	176         	0.247899296503296	6440            	;
 3981            	181         	0           	                	;
 3982            	185.8       	0.0559979274187103	6440            	;
 3983            	192.1       	0           	                	;
 3985            	197.5       	0           	                	;
 3986            	178.5       	0           	                	;
 3987            	180.9       	0.344176278036454	6440            	;
 3988            	181.5       	0           	                	;
 3989            	177.8       	0           	                	;
 3990            	180.4       	0           	                	;
 3991            	166.72      	0           	                	;
 3992            	168.5       	0.597168191502211	6440            	;
 3993            	181.5       	0.279089712972625	6440            	;
 3994            	175.8       	0           	                	;
 3996            	179.9       	0.314651615155197	6440            	;
 3997            	183         	0           	                	;
 3998            	181.5       	0           	                	;
 3999            	177.05      	0.25934800005495	6440            	;
 4000            	186.1       	0.0576928576922172	6443            	;
 4001            	170.1       	0           	                	;
 4002            	183.25      	0.395430234592532	6440            	;
 4003            	186.8       	0           	                	;
 4004            	180.4       	0.850556429166919	6440            	;
 4005            	187.1       	0.0841574713125003	6443            	;
 4007            	178         	0.312923284062027	6440            	;
 4008            	180.6       	1.01383007960998	6440            	;
 4009            	167.2       	0           	                	;
 4011            	184.9       	0           	                	;
 4012            	176.8       	0           	                	;
 4013            	172.4       	0           	                	;
 4015            	206         	0.0882044833755761	6440            	;
 4016            	183         	0           	                	;
 4017            	186.4       	0.0500620040780297	6440            	;
 4018            	184.4       	0.0917439938836481	6443            	;
 4019            	169.1       	0           	                	;
 4020            	176.8       	0           	                	;
 4021            	188.9       	0           	                	;
 4022            	180.5       	0           	                	;
 4023            	179.7       	0           	                	;
 4024            	209.5       	0           	                	;
 4025            	167         	0.058405671424368	6440            	;
 4026            	178.2       	0.054829813990223	6440            	;
 4030            	180.7       	1.72237133077983	6440            	;
 4031            	183.3       	0           	                	;
 4032            	191.8       	0.110553592338982	6440            	;
 4034            	183.5       	0           	                	;
 4035            	171.65      	0.351327992904744	6440            	;
 4036            	185.5       	0.084330637821919	6440            	;
 4037            	183         	0           	                	;
 4038            	180.7       	0.735434678955817	6440            	;
 4039            	186.8       	0           	                	;
 4040            	183         	0.317059359160855	6440            	;
 4041            	180.5       	0.0753909942365566	6440            	;
 4042            	184         	0           	                	;
 4043            	183.5       	0.302791687998616	6440            	;
 4044            	182.1       	0           	                	;
 4045            	175.4       	0           	                	;
 4047            	190.2       	0           	                	;
 4048            	180.8       	0           	                	;
 4049            	182.85      	0           	                	;
 4050            	187.7       	0           	                	;
 4051            	180.7       	0           	                	;
 4052            	171.7       	0           	                	;
 4054            	204.7       	0           	                	;
 4055            	181.5       	0.368030227003396	6440            	;
 4057            	189.25      	0           	                	;
 4058            	172.5       	0.0199652040073095	6440            	;
 4060            	184.25      	0           	                	;
 4061            	169.1       	0           	                	;
 4062            	178.3       	0           	                	;
 4063            	180.9       	0           	                	;
 4064            	180         	0.129624831987755	6440            	;
 4065            	174.6       	0.10161394875362	6440            	;
 4066            	220.75      	0.0828406972243586	6440            	;
 4067            	183.5       	0           	                	;
 4068            	189.6       	0           	                	;
 4069            	177.5       	0.184544042413832	6440            	;
 4070            	180.65      	0           	                	;
 4071            	182.9       	0           	                	;
 4072            	162         	0           	                	;
 4073            	187.4       	0           	                	;
 4074            	193.5       	0.0208591683658457	6440            	;
 4075            	221.5       	0           	                	;
 4076            	189.7       	0           	                	;
 4077            	189.9       	0           	                	;
 4079            	181         	0           	                	;
 4080            	166.7       	0           	                	;
 4081            	179.5       	0           	                	;
 4082            	175.8       	0.0595976239024163	6440            	;
 4083            	179         	0           	                	;
 4085            	196.7       	0.519095304190046	6440            	;
 4086            	178.1       	0           	                	;
 4087            	180.5       	0.249392216982051	6440            	;
 4088            	190.9       	0.174919026153592	6440            	;
 4089            	204.4       	0           	                	;
 4090            	190.6       	0.0437548278522014	6443            	;
 4091            	183         	0.218997428791819	6440            	;
 4092            	164.8       	0           	                	;
 4093            	179.7       	0.0450921729938131	6443            	;
 4094            	178         	0           	                	;
 4095            	168.4       	0           	                	;
 4096            	182.9       	0.374869054346198	6440            	;
 4097            	174.95      	0.225773678629524	6440            	;
 4098            	171.8       	0           	                	;
 4100            	180.65      	0           	                	;
 4102            	184.9       	0.609087716282694	6440            	;
 4103            	189.85      	0           	                	;
 4104            	181.3       	0           	                	;
 4105            	178.1       	0.214992468465576	6440            	;
 4106            	177.9       	0           	                	;
 4108            	213         	0           	                	;
 4109            	183.5       	0.454408043206363	6440            	;
 4111            	195.8       	0           	                	;
 4112            	181.1       	0           	                	;
 4113            	180.7       	0           	                	;
 4114            	214.5       	0           	                	;
 4115            	185.24      	0           	                	;
 4116            	189.8       	0           	                	;
 4117            	189.25      	0           	                	;
 4118            	185.9       	0           	                	;
 4119            	181.7       	0.0469361087043479	6440            	;
 4120            	184.1       	0           	                	;
 4121            	179.3       	0           	                	;
 4122            	180.2       	0           	                	;
 4123            	177.7       	0.611176613000474	6440            	;
 4124            	181.3       	0.112666917411844	6443            	;
 4125            	177.4       	0.235410614414544	6440            	;
 4126            	177.5       	0           	                	;
 4127            	171.2       	0.058405671424368	6440            	;
 4128            	171.5       	0.0692137005190712	6440            	;
 4129            	180.9       	0           	                	;
 4130            	178.3       	0           	                	;
 4131            	179.8       	0           	                	;
 4132            	172.9       	0           	                	;
 4133            	192.6       	0           	                	;
 4134            	173         	0.489370989268716	6440            	;
 4135            	181.3       	0           	                	;
 4136            	166.73      	0.975413451242481	6440            	;
 4137            	180.4       	0           	                	;
 4138            	184.25      	0.164227212425498	6440            	;
 4139            	184.8       	0           	                	;
 4140            	176.4       	0           	                	;
 4141            	167.8       	0.10161394875362	6440            	;
 4142            	189.9       	0           	                	;
 4143            	192         	0           	                	;
 4144            	177.2       	0           	                	;
 4145            	162         	0           	                	;
 4146            	195.9       	0.291307225872621	6440            	;
 4147            	181.3       	0           	                	;
 4148            	182.5       	0           	                	;
 4149            	181.6       	0           	                	;
 4150            	179.6       	0.146908142919456	6440            	;
 4151            	179.7       	0           	                	;
 4152            	183.4       	0.152867905309698	6440            	;
 4153            	176.5       	0           	                	;
 4154            	179.7       	0           	                	;
 4155            	169.85      	0           	                	;
 4156            	176.9       	0           	                	;
 4157            	181         	0.0980380913194748	6440            	;
 4158            	187.7       	0           	                	;
 4159            	180.2       	0           	                	;
 4160            	180.5       	0           	                	;
 4161            	182.4       	0           	                	;
 4162            	180         	0           	                	;
 4163            	180         	0           	                	;
 4164            	181.35      	0           	                	;
 4166            	211.5       	0.4094356762096	6440            	;
 4168            	183         	0.0467841347633968	6440            	;
 4169            	166.95      	0           	                	;
 4170            	168.1       	0.0682392793682667	6440            	;
 4171            	179.2       	0           	                	;
 4172            	178         	0           	                	;
 4173            	170.8       	0           	                	;
 4174            	178.45      	0.0887349022283076	6440            	;
 4175            	186.7       	0.0742773488942613	6443            	;
 4176            	181.5       	0           	                	;
 4177            	168.5       	0           	                	;
 4178            	191         	0           	                	;
 4179            	179.7       	1.26695906761071	6440            	;
 4180            	191.4       	0.240985972130615	6440            	;
 4181            	190.5       	0           	                	;
 4182            	183.5       	0           	                	;
 4183            	170.8       	0.135286606258485	6440            	;
 4184            	195.3       	0.251203984748685	6440            	;
 4185            	181.4       	0           	                	;
 4186            	184.75      	0.00566177427072955	6440            	;
 4187            	176.5       	0           	                	;
 4188            	184.9       	0           	                	;
 4189            	168.8       	0.141246368648727	6440            	;
 4190            	182.1       	0.257437896208877	6440            	;
 4191            	179.9       	0           	                	;
 4192            	183.6       	0           	                	;
 4193            	190         	0.111151377205189	6443            	;
 4194            	186.3       	0.0861423173340215	6443            	;
 4195            	181.3       	0.336130598809628	6440            	;
 4196            	221.5       	0           	                	;
 4197            	173.85      	0.0381424792975464	6440            	;
 4199            	182.3       	0           	                	;
 4200            	167.1       	0           	                	;
 4202            	210         	0.17931733079759	6440            	;
 4203            	167.5       	0           	                	;
 4204            	202.3       	0           	                	;
 4205            	180.4       	0           	                	;
 4206            	204.1       	1.23958289907114	6440            	;
 4207            	180         	0           	                	;
 4208            	185.2       	0.0211571564853578	6440            	;
 4209            	186.6       	0           	                	;
 4210            	177.5       	0           	                	;
 4211            	174.9       	0           	                	;
 4212            	187.35      	0           	                	;
 4213            	184.4       	0.0434019663372643	6443            	;
 4214            	177.8       	0.0134087375676101	6443            	;
 4215            	189.7       	0.116899491283515	6443            	;
 4216            	208.8       	0           	                	;
 4217            	189.75      	0.0937202434677447	6440            	;
 4218            	197.55      	0.0455921822853485	6440            	;
 4219            	168.1       	0.134988618138973	6440            	;
 4220            	183.5       	0           	                	;
 4221            	212.2       	0           	                	;
 4222            	183.35      	0           	                	;
 4223            	170.45      	0           	                	;
 4224            	176.7       	0           	                	;
 4225            	183         	0.902308025882583	6440            	;
 4226            	183         	0           	                	;
 4227            	181.4       	0           	                	;
 4228            	184.6       	0           	                	;
 4229            	180.7       	0           	                	;
 4230            	177.05      	0           	                	;
 4231            	181         	0           	                	;
 4232            	180.2       	0           	                	;
 4233            	184.4       	0.358354552762839	6440            	;
 4234            	181.3       	0.0370504590683964	6443            	;
 4235            	179.25      	0           	                	;
 4236            	183.9       	0           	                	;
 4237            	186         	0           	                	;
 4238            	161.85      	0           	                	;
 4239            	175.8       	0           	                	;
 4240            	185.2       	0           	                	;
 4241            	167.5       	0           	                	;
 4242            	200.3       	0           	                	;
 4243            	177.7       	0           	                	;
 4244            	183.95      	0           	                	;
 4245            	183.7       	0           	                	;
 4246            	181.3       	0           	                	;
 4247            	180.6       	0           	                	;
 4248            	181.4       	0.641133358655024	6440            	;
 4249            	188.4       	0           	                	;
 4251            	172.1       	0           	                	;
 4252            	183.5       	0.0285817827099058	6443            	;
 4253            	189.8       	0.143630273604823	6440            	;
 4254            	174.5       	0.40819604563243	6440            	;
 4255            	187.4       	0           	                	;
 4256            	183.8       	0           	                	;
 4257            	192.9       	0.0132323068101416	6443            	;
 4258            	180.85      	0           	                	;
 4259            	180         	0.833520448374414	6440            	;
 4261            	188.05      	0.0608686113266512	6443            	;
 4262            	185.5       	0           	                	;
 4263            	183.25      	0           	                	;
 4264            	183.5       	0.217233339124307	6440            	;
 4266            	175.9       	0           	                	;
 4267            	186         	0.876442657108934	6440            	;
 4268            	163.5       	0           	                	;
 4269            	162         	0           	                	;
 4270            	176.5       	0           	                	;
 4271            	188         	0.305139834380371	6440            	;
 4272            	190.5       	0.106679746785325	6440            	;
 4273            	182.5       	0.0393440589154876	6443            	;
 4274            	181         	0           	                	;
 4275            	181.3       	0           	                	;
 4276            	185.9       	0           	                	;
 4277            	186         	0           	                	;
 4278            	183         	0.123367081478002	6440            	;
 4279            	188.7       	0.257163747138926	6440            	;
 4280            	181.3       	0.0561049808750002	6443            	;
 4670            	200.2       	0           	                	;
 4671            	210.45      	0           	                	;
 4672            	201         	0           	                	;
 4673            	200.4       	0           	                	;
 4674            	213.8       	0           	                	;
 4675            	196.8       	0           	                	;
 4676            	204.5       	0           	                	;
 4677            	204         	0           	                	;
 4678            	198.1       	0           	                	;
 4679            	196.7       	0           	                	;
 4680            	198.3       	0           	                	;
 4681            	193.4       	0.0169373527169812	6443            	;
 4682            	199.7       	0.0591678188246543	6443            	;
 4683            	196.2       	0.116278455017225	6443            	;
 4684            	200.4       	0.0368599138503303	6443            	;
 4685            	198         	0.0957877868448274	6443            	;
 4686            	197.4       	0.0853077998511953	6443            	;
 4687            	199.8       	0           	                	;
 4688            	199.4       	0           	                	;
 4689            	200.3       	0           	                	;
 4690            	200.8       	0.196882610874309	6443            	;
 4691            	201         	0.0681022723828619	6443            	;
 4692            	203.6       	0.0407413905146385	6443            	;
 4693            	203         	0.0142908913549529	6443            	;
 4695            	206         	0.0866133874564626	6443            	;
 4696            	206.2       	0.0513272359627518	6443            	;
 4697            	207.8       	0.0636809176006999	6443            	;
 4698            	207.5       	0.13519006791028	6443            	;
 4699            	209.1       	0.43442898272997	6443            	;
 4700            	212.8       	0.0954066964086953	6443            	;
 4701            	212.7       	0.100332643157217	6443            	;
 4702            	212.3       	0.0539736973247801	6443            	;
 4703            	213.3       	0.0666643617094932	6443            	;
 4704            	215.3       	0.0788186765915019	6443            	;
 4705            	216.9       	0.0857453481297173	6443            	;
 4706            	218         	0.0881448064312896	6443            	;
 4707            	217.4       	0.0853219143117928	6443            	;
 4708            	218.2       	0.0576928576922172	6443            	;
 4709            	219.2       	0.0239063676369891	6443            	;
 4711            	224         	0.0692243720003619	6443            	;
 4712            	223.2       	0.100339700387516	6443            	;
 4713            	223.4       	0.117172958957591	6443            	;
 4714            	227         	0.0920827409379878	6443            	;
 4715            	228         	0.0160763706205346	6443            	;
 4716            	230         	0.0693231732245443	6443            	;
 4717            	229.5       	0.0285817827099058	6443            	;
 4718            	233         	0.0100565531757076	6443            	;
 4719            	236.3       	0.0222302754410378	6443            	;
 4720            	234.7       	0.0213057782719026	6443            	;
 4722            	235.5       	0           	                	;
 4723            	213         	0           	                	;
 4724            	214.62      	0           	                	;
 4725            	235.45      	0           	                	;
 4726            	232.5       	0.138321713855346	6443            	;
 4727            	197.3       	0.0368740283109278	6443            	;
 4728            	215.15      	0.104895142545354	6443            	;
 4729            	213.2       	0.0497534736061323	6443            	;
 4730            	218.4       	0           	                	;
 4731            	198.3       	0           	                	;
 4732            	247.5       	0           	                	;
 4733            	213.9       	0           	                	;
 4734            	251.2       	0           	                	;
 4735            	238.4       	0.210296641364643	6443            	;
 4736            	218.25      	0           	                	;
 4737            	239.6       	0           	                	;
 4738            	219.25      	0.124383684015331	6443            	;
 4739            	243.05      	0.249116700930449	6443            	;
 4740            	188.8       	0.330174283834227	6443            	;
 4741            	246.5       	0           	                	;
 4742            	252.15      	0           	                	;
 4743            	206         	0           	                	;
 4744            	238.8       	0.149613282333334	6443            	;
 4745            	215.65      	0.00564578423899373	6443            	;
 4746            	201.9       	0           	                	;
 4747            	203.4       	0.0980955011525161	6443            	;
 4748            	225.4       	0.149987315539167	6443            	;
 4749            	198.75      	0.171843557774372	6443            	;
 4750            	226.85      	0.138321713855346	6443            	;
 4751            	241         	0           	                	;
 4752            	194.4       	0.161901684591019	6443            	;
 4753            	206.25      	0           	                	;
 4754            	187.5       	0           	                	;
 4755            	220.9       	0           	                	;
 4756            	251.7       	0.12685371461989	6443            	;
 4757            	197.85      	0           	                	;
 4758            	254.2       	0           	                	;
 4759            	194.9       	0           	                	;
 4760            	218.35      	0.17092788214311	6443            	;
 4761            	205.85      	0.0760416564689468	6443            	;
 4762            	218.25      	0           	                	;
 4763            	209.8       	0           	                	;
 4764            	214.85      	0.0943904552456765	6443            	;
 4765            	194.55      	0           	                	;
 4766            	239.1       	0.159772165348373	6443            	;
 4767            	216.05      	0           	                	;
 4768            	224.4       	0.200421811869128	6443            	;
 4769            	234.3       	0           	                	;
 4770            	239.9       	0           	                	;
 4771            	250.5       	0           	                	;
 4772            	198.65      	0.0529292272405662	6443            	;
 4773            	252.95      	0.0673965493529877	6443            	;
 4774            	237         	0.084002212245928	6443            	;
 4775            	233.75      	0.216810464930382	6443            	;
 4776            	196.7       	0           	                	;
 4777            	210.4       	0           	                	;
 4778            	200.2       	0.113974269324686	6443            	;
 4779            	222         	0.274196333104604	6443            	;
 4780            	237.85      	0           	                	;
 4781            	238.85      	0.10374128539151	6443            	;
 4782            	237.75      	0           	                	;
 4783            	188.4       	0           	                	;
 4784            	248         	0           	                	;
 4785            	232.75      	0           	                	;
 4786            	251.45      	0           	                	;
 4787            	239.4       	0           	                	;
 4788            	223.9       	0           	                	;
 4789            	203         	0.352353394355599	6443            	;
 4790            	197.5       	0           	                	;
 4791            	218.9       	0.212996031953912	6443            	;
 4792            	207.15      	0.283347796494498	6443            	;
 4793            	201.9       	0.118737899776337	6443            	;
 4794            	234.7       	0           	                	;
 4795            	198.2       	0           	                	;
 4796            	215.05      	0.201688584707752	6443            	;
 4797            	221.5       	0.189663064278696	6443            	;
 4798            	255.1       	0           	                	;
 4799            	192.35      	0           	                	;
 4800            	237         	0.0832753175251576	6443            	;
 4801            	203.5       	0           	                	;
 4802            	205.5       	0           	                	;
 4803            	212.5       	0.131617345071541	6443            	;
 4804            	214.5       	0.0666908263231134	6443            	;
 4805            	232.45      	0           	                	;